*Heading
** Job name: Cylinder_3D_Buckle Model name: Cylinder_3D_Buckle
** Generated by: Abaqus/CAE 2021
*Preprint, echo=NO, model=NO, history=NO, contact=NO
**
** PARTS
**
*Part, name=Part-1
*Node
      1,           0.,         -33.,          50.
      2,           0.,  -33.0999985,          50.
      3,   33.0999985,           0.,          50.
      4,          33.,           0.,          50.
      5,           0.,  -33.0999985,           0.
      6,   33.0999985,           0.,           0.
      7,          33.,           0.,           0.
      8,           0.,         -33.,           0.
      9,         -33.,           0.,          50.
     10,  -33.0999985,           0.,          50.
     11,  -33.0999985,           0.,           0.
     12,         -33.,           0.,           0.
     13,           0.,          33.,          50.
     14,           0.,   33.0999985,          50.
     15,           0.,          33.,           0.
     16,           0.,   33.0999985,           0.
     17,           0.,         -33.,         100.
     18,           0.,  -33.0999985,         100.
     19,   33.0999985,           0.,         100.
     20,          33.,           0.,         100.
** ... 1480 like lines cut
*Element, type=C3D20
 1,  48,  53, 201, 185,   1,   2,  25,  32, 444, 443, 442, 441, 445, 446, 447,
    448, 450, 449, 451, 452
 2, 185, 201, 202, 186,  32,  25,  26,  31, 442, 455, 454, 453, 447, 456, 457,
    458, 452, 451, 459, 460
 3, 186, 202, 203, 187,  31,  26,  27,  30, 454, 463, 462, 461, 457, 464, 465,
    466, 460, 459, 467, 468
 4, 187, 203, 204, 188,  30,  27,  28,  29, 462, 471, 470, 469, 465, 472, 473,
    474, 468, 467, 475, 476
 5, 188, 204,  52,  41,  29,  28,   3,   4, 470, 479, 478, 477, 473, 480, 481,
    482, 476, 475, 483, 484
 6,  47,  54, 205, 189,  48,  53, 201, 185, 488, 487, 486, 485, 444, 443, 442,
    441, 490, 489, 491, 492
 7, 189, 205, 206, 190, 185, 201, 202, 186, 486, 495, 494, 493, 442, 455, 454,
    453, 492, 491, 496, 497
 8, 190, 206, 207, 191, 186, 202, 203, 187, 494, 500, 499, 498, 454, 463, 462,
    461, 497, 496, 501, 502
 9, 191, 207, 208, 192, 187, 203, 204, 188, 499, 505, 504, 503, 462, 471, 470,
    469, 502, 501, 506, 507
10, 192, 208,  51,  42, 188, 204,  52,  41, 504, 510, 509, 508, 470, 479, 478,
    477, 507, 506, 511, 512
** ... 380 like lines cut
*Nset, nset=Set-1, generate
    1,  1500,     1
*Elset, elset=Set-1, generate
   1,  200,    1
** Section: Section-1
*Solid Section, elset=Set-1, material=Material-1
,
*End Part
**  
**
** ASSEMBLY
**
*Assembly, name=Assembly
**  
*Instance, name=Part-1-1, part=Part-1
*End Instance
**  
*Node
      1,           0.,           0.,           0.
*Nset, nset=RP-1
 1,
*Nset, nset=SET-RP-1, instance=Part-1-1
    5,    6,    7,    8,   11,   12,   15,   16,   33,   34,   35,   36,   37,   38,   39,   40
   65,   66,   67,   68,   69,   70,   71,   72,   89,   90,   91,   92,   93,   94,   95,   96
  177,  178,  179,  180,  181,  182,  183,  184,  569,  570,  571,  572,  577,  578,  579,  582
  583,  584,  587,  588,  589,  592,  593,  594,  712,  713,  714,  715,  720,  721,  722,  725
  726,  727,  730,  731,  732,  735,  736,  852,  853,  854,  857,  858,  859,  862,  863,  864
  867,  868,  869,  872,  873,  874, 1479, 1482, 1483, 1484, 1487, 1488, 1489, 1492, 1493, 1494
 1497, 1498, 1499, 1500
*Elset, elset=SET-RP-1, instance=Part-1-1
  21,  22,  23,  24,  25,  46,  47,  48,  49,  50,  71,  72,  73,  74,  75, 196
 197, 198, 199, 200
*Nset, nset=Set-4, instance=Part-1-1
 3, 4
*Nset, nset=Set-5, instance=Part-1-1, generate
    1,  1500,     1
*Elset, elset=Set-5, instance=Part-1-1, generate
   1,  200,    1
*Nset, nset=Set-6, instance=Part-1-1, generate
    1,  1500,     1
*Elset, elset=Set-6, instance=Part-1-1, generate
   1,  200,    1
*Nset, nset=Set-RP-2, instance=Part-1-1
   17,   18,   19,   20,   21,   22,   23,   24,  105,  106,  107,  108,  109,  110,  111,  112
  129,  130,  131,  132,  133,  134,  135,  136,  145,  146,  147,  148,  149,  150,  151,  152
  165,  166,  167,  168,  173,  174,  175,  176,  989,  990,  991,  992,  997,  998,  999, 1002
 1003, 1004, 1007, 1008, 1009, 1012, 1013, 1014, 1117, 1118, 1119, 1120, 1125, 1126, 1127, 1130
 1131, 1132, 1135, 1136, 1137, 1140, 1141, 1242, 1243, 1244, 1247, 1248, 1249, 1252, 1253, 1254
 1257, 1258, 1259, 1262, 1263, 1264, 1369, 1372, 1373, 1374, 1377, 1378, 1379, 1382, 1383, 1384
 1387, 1388, 1389, 1390
*Elset, elset=Set-RP-2, instance=Part-1-1
  96,  97,  98,  99, 100, 121, 122, 123, 124, 125, 146, 147, 148, 149, 150, 171
 172, 173, 174, 175
** Constraint: Constraint-1
*Equation
2
SET-RP-1, 3, 1.
RP-1, 3, -1.
*End Assembly
** 
** MATERIALS
** 
*Material, name=Material-1
*Elastic
208000., 0.3
** 
** BOUNDARY CONDITIONS
** 
** Name: BC-1 Type: Displacement/Rotation
*Boundary
SET-RP-1, 1, 1
SET-RP-1, 2, 2
** Name: BC-3 Type: Displacement/Rotation
*Boundary
Set-RP-2, 1, 1
Set-RP-2, 2, 2
Set-RP-2, 3, 3
** ----------------------------------------------------------------
** 
** STEP: Step-1
** 
*Step, name=Step-1, nlgeom=NO, perturbation
*Buckle
10, , 18, 3000
** 
** BOUNDARY CONDITIONS
** 
** Name: BC-1 Type: Displacement/Rotation
*Boundary, op=NEW, load case=1
SET-RP-1, 1, 1
SET-RP-1, 2, 2
*Boundary, op=NEW, load case=2
SET-RP-1, 1, 1
SET-RP-1, 2, 2
** Name: BC-3 Type: Displacement/Rotation
*Boundary, op=NEW, load case=1
Set-RP-2, 1, 1
Set-RP-2, 2, 2
Set-RP-2, 3, 3
*Boundary, op=NEW, load case=2
Set-RP-2, 1, 1
Set-RP-2, 2, 2
Set-RP-2, 3, 3
** 
** LOADS
** 
** Name: Load-1   Type: Concentrated force
*Cload
RP-1, 3, 1.
** 
** OUTPUT REQUESTS
** 
*Restart, write, frequency=0
** 
** FIELD OUTPUT: F-Output-1
** 
*Output, field
*Node Output
CF, RF, U
*Element Output, directions=YES
LE, PE, PEEQ, PEMAG, S
*Contact Output
CDISP, CSTRESS
*End Step
