*Heading
** Job name: Hot Model name: Cylinder_3D_Isotrop_LSA
** Generated by: Abaqus/CAE 2021
*Preprint, echo=NO, model=NO, history=NO, contact=NO
**
** PARTS
**
*Part, name=Part-1
*Node
      1,           0.,         -33.,          50.
      2,           0.,  -33.0999985,          50.
      3,   33.0999985,           0.,          50.
      4,          33.,           0.,          50.
      5,           0.,  -33.0999985,           0.
      6,   33.0999985,           0.,           0.
      7,          33.,           0.,           0.
      8,           0.,         -33.,           0.
      9,         -33.,           0.,          50.
     10,  -33.0999985,           0.,          50.
     11,  -33.0999985,           0.,           0.
     12,         -33.,           0.,           0.
     13,           0.,          33.,          50.
     14,           0.,   33.0999985,          50.
     15,           0.,          33.,           0.
     16,           0.,   33.0999985,           0.
     17,           0.,         -33.,         100.
     18,           0.,  -33.0999985,         100.
     19,   33.0999985,           0.,         100.
     20,          33.,           0.,         100.
** ... 5780 like lines cut
*Element, type=C3D20
  1,   78,   88,  466,  385,    1,    2,   25,   42, 1684, 1683, 1682, 1681, 1685, 1686, 1687,
     1688, 1690, 1689, 1691, 1692
  2,  385,  466,  467,  386,   42,   25,   26,   41, 1682, 1695, 1694, 1693, 1687, 1696, 1697,
     1698, 1692, 1691, 1699, 1700
  3,  386,  467,  468,  387,   41,   26,   27,   40, 1694, 1703, 1702, 1701, 1697, 1704, 1705,
     1706, 1700, 1699, 1707, 1708
  4,  387,  468,  469,  388,   40,   27,   28,   39, 1702, 1711, 1710, 1709, 1705, 1712, 1713,
     1714, 1708, 1707, 1715, 1716
  5,  388,  469,  470,  389,   39,   28,   29,   38, 1710, 1719, 1718, 1717, 1713, 1720, 1721,
     1722, 1716, 1715, 1723, 1724
  6,  389,  470,  471,  390,   38,   29,   30,   37, 1718, 1727, 1726, 1725, 1721, 1728, 1729,
     1730, 1724, 1723, 1731, 1732
  7,  390,  471,  472,  391,   37,   30,   31,   36, 1726, 1735, 1734, 1733, 1729, 1736, 1737,
     1738, 1732, 1731, 1739, 1740
  8,  391,  472,  473,  392,   36,   31,   32,   35, 1734, 1743, 1742, 1741, 1737, 1744, 1745,
     1746, 1740, 1739, 1747, 1748
  9,  392,  473,  474,  393,   35,   32,   33,   34, 1742, 1751, 1750, 1749, 1745, 1752, 1753,
     1754, 1748, 1747, 1755, 1756
 10,  393,  474,   87,   61,   34,   33,    3,    4, 1750, 1759, 1758, 1757, 1753, 1760, 1761,
     1762, 1756, 1755, 1763, 1764
** ... 1580 like lines cut
*Nset, nset=Set-1, generate
    1,  5800,     1
*Elset, elset=Set-1, generate
   1,  800,    1
** Section: Section-1
*Solid Section, elset=Set-1, material=Material-1
,
*End Part
**  
**
** ASSEMBLY
**
*Assembly, name=Assembly
**  
*Instance, name=Part-1-1, part=Part-1
*End Instance
**  
*Node
      1,           0.,           0.,           0.
*Nset, nset=RP-1
 1,
*Nset, nset=SET-RP-1, instance=Part-1-1
    5,    6,    7,    8,   11,   12,   15,   16,   43,   44,   45,   46,   47,   48,   49,   50
   51,   52,   53,   54,   55,   56,   57,   58,   59,   60,  115,  116,  117,  118,  119,  120
  121,  122,  123,  124,  125,  126,  127,  128,  129,  130,  131,  132,  169,  170,  171,  172
  173,  174,  175,  176,  177,  178,  179,  180,  181,  182,  183,  184,  185,  186,  367,  368
  369,  370,  371,  372,  373,  374,  375,  376,  377,  378,  379,  380,  381,  382,  383,  384
 2189, 2190, 2191, 2192, 2197, 2198, 2199, 2202, 2203, 2204, 2207, 2208, 2209, 2212, 2213, 2214
 2217, 2218, 2219, 2222, 2223, 2224, 2227, 2228, 2229, 2232, 2233, 2234, 2237, 2238, 2239, 2722
 2723, 2724, 2725, 2730, 2731, 2732, 2735, 2736, 2737, 2740, 2741, 2742, 2745, 2746, 2747, 2750
 2751, 2752, 2755, 2756, 2757, 2760, 2761, 2762, 2765, 2766, 2767, 2770, 2771, 3252, 3253, 3254
 3257, 3258, 3259, 3262, 3263, 3264, 3267, 3268, 3269, 3272, 3273, 3274, 3277, 3278, 3279, 3282
 3283, 3284, 3287, 3288, 3289, 3292, 3293, 3294, 3297, 3298, 3299, 5754, 5757, 5758, 5759, 5762
 5763, 5764, 5767, 5768, 5769, 5772, 5773, 5774, 5777, 5778, 5779, 5782, 5783, 5784, 5787, 5788
 5789, 5792, 5793, 5794, 5797, 5798, 5799, 5800
*Elset, elset=SET-RP-1, instance=Part-1-1
  91,  92,  93,  94,  95,  96,  97,  98,  99, 100, 191, 192, 193, 194, 195, 196
 197, 198, 199, 200, 291, 292, 293, 294, 295, 296, 297, 298, 299, 300, 791, 792
 793, 794, 795, 796, 797, 798, 799, 800
*Nset, nset=Set-4, instance=Part-1-1
 3, 4
*Nset, nset=Set-5, instance=Part-1-1, generate
    1,  5800,     1
*Elset, elset=Set-5, instance=Part-1-1, generate
   1,  800,    1
*Nset, nset=Set-6, instance=Part-1-1, generate
    1,  5800,     1
*Elset, elset=Set-6, instance=Part-1-1, generate
   1,  800,    1
*Nset, nset=Set-RP-2, instance=Part-1-1
   17,   18,   19,   20,   21,   22,   23,   24,  205,  206,  207,  208,  209,  210,  211,  212
  213,  214,  215,  216,  217,  218,  219,  220,  221,  222,  259,  260,  261,  262,  263,  264
  265,  266,  267,  268,  269,  270,  271,  272,  273,  274,  275,  276,  295,  296,  297,  298
  299,  300,  301,  302,  303,  304,  305,  306,  307,  308,  309,  310,  311,  312,  340,  341
  342,  343,  344,  345,  346,  347,  348,  358,  359,  360,  361,  362,  363,  364,  365,  366
 3779, 3780, 3781, 3782, 3787, 3788, 3789, 3792, 3793, 3794, 3797, 3798, 3799, 3802, 3803, 3804
 3807, 3808, 3809, 3812, 3813, 3814, 3817, 3818, 3819, 3822, 3823, 3824, 3827, 3828, 3829, 4282
 4283, 4284, 4285, 4290, 4291, 4292, 4295, 4296, 4297, 4300, 4301, 4302, 4305, 4306, 4307, 4310
 4311, 4312, 4315, 4316, 4317, 4320, 4321, 4322, 4325, 4326, 4327, 4330, 4331, 4782, 4783, 4784
 4787, 4788, 4789, 4792, 4793, 4794, 4797, 4798, 4799, 4802, 4803, 4804, 4807, 4808, 4809, 4812
 4813, 4814, 4817, 4818, 4819, 4822, 4823, 4824, 4827, 4828, 4829, 5284, 5287, 5288, 5289, 5292
 5293, 5294, 5297, 5298, 5299, 5302, 5303, 5304, 5307, 5308, 5309, 5312, 5313, 5314, 5317, 5318
 5319, 5322, 5323, 5324, 5327, 5328, 5329, 5330
*Elset, elset=Set-RP-2, instance=Part-1-1
 391, 392, 393, 394, 395, 396, 397, 398, 399, 400, 491, 492, 493, 494, 495, 496
 497, 498, 499, 500, 591, 592, 593, 594, 595, 596, 597, 598, 599, 600, 691, 692
 693, 694, 695, 696, 697, 698, 699, 700
** Constraint: Constraint-1
*Equation
2
SET-RP-1, 3, 1.
RP-1, 3, -1.
*End Assembly
** 
** MATERIALS
** 
*Material, name=Material-1
*Elastic
208000., 0.3, 20.
150000., 0.3,500.
*Expansion
 1.3e-05,
** 
** BOUNDARY CONDITIONS
** 
** Name: BC-1 Type: Displacement/Rotation
*Boundary
SET-RP-1, 1, 1
SET-RP-1, 2, 2
** Name: BC-3 Type: Displacement/Rotation
*Boundary
Set-RP-2, 1, 1
Set-RP-2, 2, 2
Set-RP-2, 3, 3
** ----------------------------------------------------------------
** 
** STEP: Step-1
** 
*Step, name=Step-1, nlgeom=NO
*Static
0.1, 1., 1e-05, 0.1
** 
** PREDEFINED FIELDS
** 
** Name: Predefined Field-2   Type: Temperature
*Temperature
Set-6, 5000.
** 
** OUTPUT REQUESTS
** 
*Restart, write, frequency=0
** 
** FIELD OUTPUT: F-Output-1
** 
*Output, field
*Node Output
CF, NT, RF, U
*Element Output, directions=YES
LE, NE, PE, PEEQ, PEMAG, S, TEMP, THE
*Contact Output
CDISP, CSTRESS
** 
** HISTORY OUTPUT: H-Output-2
** 
*Output, history, variable=PRESELECT
*End Step
